Version 4
SHEET 1 1356 680
WIRE 272 80 -80 80
WIRE 848 80 496 80
WIRE -80 112 -80 80
WIRE 272 112 272 80
WIRE 496 112 496 80
WIRE 848 112 848 80
WIRE 96 160 80 160
WIRE 192 160 176 160
WIRE 368 160 288 160
WIRE 672 160 656 160
WIRE 768 160 752 160
WIRE 944 160 864 160
WIRE 80 192 80 160
WIRE 656 192 656 160
WIRE 368 208 368 160
WIRE 944 208 944 160
WIRE -80 304 -80 192
WIRE 16 304 -80 304
WIRE 80 304 80 272
WIRE 80 304 16 304
WIRE 368 304 368 288
WIRE 368 304 80 304
WIRE 496 304 496 192
WIRE 592 304 496 304
WIRE 656 304 656 272
WIRE 656 304 592 304
WIRE 944 304 944 288
WIRE 944 304 656 304
WIRE 16 336 16 304
WIRE 592 336 592 304
FLAG 16 336 0
FLAG 592 336 0
SYMBOL voltage 80 176 R0
WINDOW 123 0 0 Left 0
WINDOW 39 0 0 Left 0
SYMATTR InstName V1
SYMATTR Value PULSE(0 5 0 1n 1n 20n 60n 20)
SYMBOL voltage -80 96 R0
SYMATTR InstName V2
SYMATTR Value 5
SYMBOL res 352 192 R0
SYMATTR InstName R1
SYMATTR Value 1k
SYMBOL res 192 144 R90
WINDOW 0 0 56 VBottom 2
WINDOW 3 32 56 VTop 2
SYMATTR InstName R2
SYMATTR Value 0.1
SYMBOL nmos 192 112 M90
SYMATTR InstName M1
SYMATTR Value BSP89
SYMBOL voltage 944 192 R0
WINDOW 123 0 0 Left 0
WINDOW 39 0 0 Left 0
SYMATTR InstName V3
SYMATTR Value PULSE(0 3.3 0 1n 1n 20n 60n 20)
SYMBOL voltage 496 96 R0
SYMATTR InstName V4
SYMATTR Value 5
SYMBOL res 640 176 R0
SYMATTR InstName R3
SYMATTR Value 1k
SYMBOL res 768 144 R90
WINDOW 0 0 56 VBottom 2
WINDOW 3 32 56 VTop 2
SYMATTR InstName R4
SYMATTR Value 0.1
SYMBOL nmos 768 112 M90
SYMATTR InstName M2
SYMATTR Value BSP89
TEXT -114 360 Left 2 !.tran 1000n
